*SPEF "ieee 1481-1999"
*DESIGN "user_project_wrapper"
*DATE "11:11:11 Fri 11 11, 1111"
*VENDOR "OpenRCX"
*PROGRAM "Parallel Extraction"
*VERSION "1.0"
*DESIGN_FLOW "NAME_SCOPE LOCAL" "PIN_CAP NONE"
*DIVIDER /
*DELIMITER :
*BUS_DELIMITER []
*T_UNIT 1 NS
*C_UNIT 1 PF
*R_UNIT 1 OHM
*L_UNIT 1 HENRY

*NAME_MAP
*1 io_in[0]
*2 io_in[10]
*3 io_in[11]
*4 io_in[12]
*5 io_in[13]
*6 io_in[14]
*7 io_in[15]
*8 io_in[16]
*9 io_in[17]
*10 io_in[18]
*11 io_in[19]
*12 io_in[1]
*13 io_in[20]
*14 io_in[21]
*15 io_in[22]
*16 io_in[23]
*17 io_in[24]
*18 io_in[25]
*19 io_in[26]
*20 io_in[27]
*21 io_in[28]
*22 io_in[29]
*23 io_in[2]
*24 io_in[30]
*25 io_in[31]
*26 io_in[32]
*27 io_in[33]
*28 io_in[34]
*29 io_in[35]
*30 io_in[36]
*31 io_in[37]
*32 io_in[3]
*33 io_in[4]
*34 io_in[5]
*35 io_in[6]
*36 io_in[7]
*37 io_in[8]
*38 io_in[9]
*39 io_oeb[0]
*40 io_oeb[10]
*41 io_oeb[11]
*42 io_oeb[12]
*43 io_oeb[13]
*44 io_oeb[14]
*45 io_oeb[15]
*46 io_oeb[16]
*47 io_oeb[17]
*48 io_oeb[18]
*49 io_oeb[19]
*50 io_oeb[1]
*51 io_oeb[20]
*52 io_oeb[21]
*53 io_oeb[22]
*54 io_oeb[23]
*55 io_oeb[24]
*56 io_oeb[25]
*57 io_oeb[26]
*58 io_oeb[27]
*59 io_oeb[28]
*60 io_oeb[29]
*61 io_oeb[2]
*62 io_oeb[30]
*63 io_oeb[31]
*64 io_oeb[32]
*65 io_oeb[33]
*66 io_oeb[34]
*67 io_oeb[35]
*68 io_oeb[36]
*69 io_oeb[37]
*70 io_oeb[3]
*71 io_oeb[4]
*72 io_oeb[5]
*73 io_oeb[6]
*74 io_oeb[7]
*75 io_oeb[8]
*76 io_oeb[9]
*77 io_out[0]
*78 io_out[10]
*79 io_out[11]
*80 io_out[12]
*81 io_out[13]
*82 io_out[14]
*83 io_out[15]
*84 io_out[16]
*85 io_out[17]
*86 io_out[18]
*87 io_out[19]
*88 io_out[1]
*89 io_out[20]
*90 io_out[21]
*91 io_out[22]
*92 io_out[23]
*93 io_out[24]
*94 io_out[25]
*95 io_out[26]
*96 io_out[27]
*97 io_out[28]
*98 io_out[29]
*99 io_out[2]
*100 io_out[30]
*101 io_out[31]
*102 io_out[32]
*103 io_out[33]
*104 io_out[34]
*105 io_out[35]
*106 io_out[36]
*107 io_out[37]
*108 io_out[3]
*109 io_out[4]
*110 io_out[5]
*111 io_out[6]
*112 io_out[7]
*113 io_out[8]
*114 io_out[9]
*115 la_data_in[0]
*116 la_data_in[10]
*117 la_data_in[11]
*118 la_data_in[12]
*119 la_data_in[13]
*120 la_data_in[14]
*121 la_data_in[15]
*122 la_data_in[16]
*123 la_data_in[17]
*124 la_data_in[18]
*125 la_data_in[19]
*126 la_data_in[1]
*127 la_data_in[20]
*128 la_data_in[21]
*129 la_data_in[22]
*130 la_data_in[23]
*131 la_data_in[24]
*132 la_data_in[25]
*133 la_data_in[26]
*134 la_data_in[27]
*135 la_data_in[28]
*136 la_data_in[29]
*137 la_data_in[2]
*138 la_data_in[30]
*139 la_data_in[31]
*140 la_data_in[32]
*141 la_data_in[33]
*142 la_data_in[34]
*143 la_data_in[35]
*144 la_data_in[36]
*145 la_data_in[37]
*146 la_data_in[38]
*147 la_data_in[39]
*148 la_data_in[3]
*149 la_data_in[40]
*150 la_data_in[41]
*151 la_data_in[42]
*152 la_data_in[43]
*153 la_data_in[44]
*154 la_data_in[45]
*155 la_data_in[46]
*156 la_data_in[47]
*157 la_data_in[48]
*158 la_data_in[49]
*159 la_data_in[4]
*160 la_data_in[50]
*161 la_data_in[51]
*162 la_data_in[52]
*163 la_data_in[53]
*164 la_data_in[54]
*165 la_data_in[55]
*166 la_data_in[56]
*167 la_data_in[57]
*168 la_data_in[58]
*169 la_data_in[59]
*170 la_data_in[5]
*171 la_data_in[60]
*172 la_data_in[61]
*173 la_data_in[62]
*174 la_data_in[63]
*175 la_data_in[6]
*176 la_data_in[7]
*177 la_data_in[8]
*178 la_data_in[9]
*179 la_data_out[0]
*180 la_data_out[10]
*181 la_data_out[11]
*182 la_data_out[12]
*183 la_data_out[13]
*184 la_data_out[14]
*185 la_data_out[15]
*186 la_data_out[16]
*187 la_data_out[17]
*188 la_data_out[18]
*189 la_data_out[19]
*190 la_data_out[1]
*191 la_data_out[20]
*192 la_data_out[21]
*193 la_data_out[22]
*194 la_data_out[23]
*195 la_data_out[24]
*196 la_data_out[25]
*197 la_data_out[26]
*198 la_data_out[27]
*199 la_data_out[28]
*200 la_data_out[29]
*201 la_data_out[2]
*202 la_data_out[30]
*203 la_data_out[31]
*204 la_data_out[32]
*205 la_data_out[33]
*206 la_data_out[34]
*207 la_data_out[35]
*208 la_data_out[36]
*209 la_data_out[37]
*210 la_data_out[38]
*211 la_data_out[39]
*212 la_data_out[3]
*213 la_data_out[40]
*214 la_data_out[41]
*215 la_data_out[42]
*216 la_data_out[43]
*217 la_data_out[44]
*218 la_data_out[45]
*219 la_data_out[46]
*220 la_data_out[47]
*221 la_data_out[48]
*222 la_data_out[49]
*223 la_data_out[4]
*224 la_data_out[50]
*225 la_data_out[51]
*226 la_data_out[52]
*227 la_data_out[53]
*228 la_data_out[54]
*229 la_data_out[55]
*230 la_data_out[56]
*231 la_data_out[57]
*232 la_data_out[58]
*233 la_data_out[59]
*234 la_data_out[5]
*235 la_data_out[60]
*236 la_data_out[61]
*237 la_data_out[62]
*238 la_data_out[63]
*239 la_data_out[6]
*240 la_data_out[7]
*241 la_data_out[8]
*242 la_data_out[9]
*243 la_oenb[0]
*244 la_oenb[10]
*245 la_oenb[11]
*246 la_oenb[12]
*247 la_oenb[13]
*248 la_oenb[14]
*249 la_oenb[15]
*250 la_oenb[16]
*251 la_oenb[17]
*252 la_oenb[18]
*253 la_oenb[19]
*254 la_oenb[1]
*255 la_oenb[20]
*256 la_oenb[21]
*257 la_oenb[22]
*258 la_oenb[23]
*259 la_oenb[24]
*260 la_oenb[25]
*261 la_oenb[26]
*262 la_oenb[27]
*263 la_oenb[28]
*264 la_oenb[29]
*265 la_oenb[2]
*266 la_oenb[30]
*267 la_oenb[31]
*268 la_oenb[32]
*269 la_oenb[33]
*270 la_oenb[34]
*271 la_oenb[35]
*272 la_oenb[36]
*273 la_oenb[37]
*274 la_oenb[38]
*275 la_oenb[39]
*276 la_oenb[3]
*277 la_oenb[40]
*278 la_oenb[41]
*279 la_oenb[42]
*280 la_oenb[43]
*281 la_oenb[44]
*282 la_oenb[45]
*283 la_oenb[46]
*284 la_oenb[47]
*285 la_oenb[48]
*286 la_oenb[49]
*287 la_oenb[4]
*288 la_oenb[50]
*289 la_oenb[51]
*290 la_oenb[52]
*291 la_oenb[53]
*292 la_oenb[54]
*293 la_oenb[55]
*294 la_oenb[56]
*295 la_oenb[57]
*296 la_oenb[58]
*297 la_oenb[59]
*298 la_oenb[5]
*299 la_oenb[60]
*300 la_oenb[61]
*301 la_oenb[62]
*302 la_oenb[63]
*303 la_oenb[6]
*304 la_oenb[7]
*305 la_oenb[8]
*306 la_oenb[9]
*307 user_clock2
*308 user_irq[0]
*309 user_irq[1]
*310 user_irq[2]
*313 wb_clk_i
*314 wb_rst_i
*315 wbs_ack_o
*316 wbs_adr_i[0]
*317 wbs_adr_i[10]
*318 wbs_adr_i[11]
*319 wbs_adr_i[12]
*320 wbs_adr_i[13]
*321 wbs_adr_i[14]
*322 wbs_adr_i[15]
*323 wbs_adr_i[16]
*324 wbs_adr_i[17]
*325 wbs_adr_i[18]
*326 wbs_adr_i[19]
*327 wbs_adr_i[1]
*328 wbs_adr_i[20]
*329 wbs_adr_i[21]
*330 wbs_adr_i[22]
*331 wbs_adr_i[23]
*332 wbs_adr_i[24]
*333 wbs_adr_i[25]
*334 wbs_adr_i[26]
*335 wbs_adr_i[27]
*336 wbs_adr_i[28]
*337 wbs_adr_i[29]
*338 wbs_adr_i[2]
*339 wbs_adr_i[30]
*340 wbs_adr_i[31]
*341 wbs_adr_i[3]
*342 wbs_adr_i[4]
*343 wbs_adr_i[5]
*344 wbs_adr_i[6]
*345 wbs_adr_i[7]
*346 wbs_adr_i[8]
*347 wbs_adr_i[9]
*348 wbs_cyc_i
*349 wbs_dat_i[0]
*350 wbs_dat_i[10]
*351 wbs_dat_i[11]
*352 wbs_dat_i[12]
*353 wbs_dat_i[13]
*354 wbs_dat_i[14]
*355 wbs_dat_i[15]
*356 wbs_dat_i[16]
*357 wbs_dat_i[17]
*358 wbs_dat_i[18]
*359 wbs_dat_i[19]
*360 wbs_dat_i[1]
*361 wbs_dat_i[20]
*362 wbs_dat_i[21]
*363 wbs_dat_i[22]
*364 wbs_dat_i[23]
*365 wbs_dat_i[24]
*366 wbs_dat_i[25]
*367 wbs_dat_i[26]
*368 wbs_dat_i[27]
*369 wbs_dat_i[28]
*370 wbs_dat_i[29]
*371 wbs_dat_i[2]
*372 wbs_dat_i[30]
*373 wbs_dat_i[31]
*374 wbs_dat_i[3]
*375 wbs_dat_i[4]
*376 wbs_dat_i[5]
*377 wbs_dat_i[6]
*378 wbs_dat_i[7]
*379 wbs_dat_i[8]
*380 wbs_dat_i[9]
*381 wbs_dat_o[0]
*382 wbs_dat_o[10]
*383 wbs_dat_o[11]
*384 wbs_dat_o[12]
*385 wbs_dat_o[13]
*386 wbs_dat_o[14]
*387 wbs_dat_o[15]
*388 wbs_dat_o[16]
*389 wbs_dat_o[17]
*390 wbs_dat_o[18]
*391 wbs_dat_o[19]
*392 wbs_dat_o[1]
*393 wbs_dat_o[20]
*394 wbs_dat_o[21]
*395 wbs_dat_o[22]
*396 wbs_dat_o[23]
*397 wbs_dat_o[24]
*398 wbs_dat_o[25]
*399 wbs_dat_o[26]
*400 wbs_dat_o[27]
*401 wbs_dat_o[28]
*402 wbs_dat_o[29]
*403 wbs_dat_o[2]
*404 wbs_dat_o[30]
*405 wbs_dat_o[31]
*406 wbs_dat_o[3]
*407 wbs_dat_o[4]
*408 wbs_dat_o[5]
*409 wbs_dat_o[6]
*410 wbs_dat_o[7]
*411 wbs_dat_o[8]
*412 wbs_dat_o[9]
*413 wbs_sel_i[0]
*414 wbs_sel_i[1]
*415 wbs_sel_i[2]
*416 wbs_sel_i[3]
*417 wbs_stb_i
*418 wbs_we_i
*419 mprj

*PORTS
io_in[0] I
io_in[10] I
io_in[11] I
io_in[12] I
io_in[13] I
io_in[14] I
io_in[15] I
io_in[16] I
io_in[17] I
io_in[18] I
io_in[19] I
io_in[1] I
io_in[20] I
io_in[21] I
io_in[22] I
io_in[23] I
io_in[24] I
io_in[25] I
io_in[26] I
io_in[27] I
io_in[28] I
io_in[29] I
io_in[2] I
io_in[30] I
io_in[31] I
io_in[32] I
io_in[33] I
io_in[34] I
io_in[35] I
io_in[36] I
io_in[37] I
io_in[3] I
io_in[4] I
io_in[5] I
io_in[6] I
io_in[7] I
io_in[8] I
io_in[9] I
io_oeb[0] O
io_oeb[10] O
io_oeb[11] O
io_oeb[12] O
io_oeb[13] O
io_oeb[14] O
io_oeb[15] O
io_oeb[16] O
io_oeb[17] O
io_oeb[18] O
io_oeb[19] O
io_oeb[1] O
io_oeb[20] O
io_oeb[21] O
io_oeb[22] O
io_oeb[23] O
io_oeb[24] O
io_oeb[25] O
io_oeb[26] O
io_oeb[27] O
io_oeb[28] O
io_oeb[29] O
io_oeb[2] O
io_oeb[30] O
io_oeb[31] O
io_oeb[32] O
io_oeb[33] O
io_oeb[34] O
io_oeb[35] O
io_oeb[36] O
io_oeb[37] O
io_oeb[3] O
io_oeb[4] O
io_oeb[5] O
io_oeb[6] O
io_oeb[7] O
io_oeb[8] O
io_oeb[9] O
io_out[0] O
io_out[10] O
io_out[11] O
io_out[12] O
io_out[13] O
io_out[14] O
io_out[15] O
io_out[16] O
io_out[17] O
io_out[18] O
io_out[19] O
io_out[1] O
io_out[20] O
io_out[21] O
io_out[22] O
io_out[23] O
io_out[24] O
io_out[25] O
io_out[26] O
io_out[27] O
io_out[28] O
io_out[29] O
io_out[2] O
io_out[30] O
io_out[31] O
io_out[32] O
io_out[33] O
io_out[34] O
io_out[35] O
io_out[36] O
io_out[37] O
io_out[3] O
io_out[4] O
io_out[5] O
io_out[6] O
io_out[7] O
io_out[8] O
io_out[9] O
la_data_in[0] I
la_data_in[10] I
la_data_in[11] I
la_data_in[12] I
la_data_in[13] I
la_data_in[14] I
la_data_in[15] I
la_data_in[16] I
la_data_in[17] I
la_data_in[18] I
la_data_in[19] I
la_data_in[1] I
la_data_in[20] I
la_data_in[21] I
la_data_in[22] I
la_data_in[23] I
la_data_in[24] I
la_data_in[25] I
la_data_in[26] I
la_data_in[27] I
la_data_in[28] I
la_data_in[29] I
la_data_in[2] I
la_data_in[30] I
la_data_in[31] I
la_data_in[32] I
la_data_in[33] I
la_data_in[34] I
la_data_in[35] I
la_data_in[36] I
la_data_in[37] I
la_data_in[38] I
la_data_in[39] I
la_data_in[3] I
la_data_in[40] I
la_data_in[41] I
la_data_in[42] I
la_data_in[43] I
la_data_in[44] I
la_data_in[45] I
la_data_in[46] I
la_data_in[47] I
la_data_in[48] I
la_data_in[49] I
la_data_in[4] I
la_data_in[50] I
la_data_in[51] I
la_data_in[52] I
la_data_in[53] I
la_data_in[54] I
la_data_in[55] I
la_data_in[56] I
la_data_in[57] I
la_data_in[58] I
la_data_in[59] I
la_data_in[5] I
la_data_in[60] I
la_data_in[61] I
la_data_in[62] I
la_data_in[63] I
la_data_in[6] I
la_data_in[7] I
la_data_in[8] I
la_data_in[9] I
la_data_out[0] O
la_data_out[10] O
la_data_out[11] O
la_data_out[12] O
la_data_out[13] O
la_data_out[14] O
la_data_out[15] O
la_data_out[16] O
la_data_out[17] O
la_data_out[18] O
la_data_out[19] O
la_data_out[1] O
la_data_out[20] O
la_data_out[21] O
la_data_out[22] O
la_data_out[23] O
la_data_out[24] O
la_data_out[25] O
la_data_out[26] O
la_data_out[27] O
la_data_out[28] O
la_data_out[29] O
la_data_out[2] O
la_data_out[30] O
la_data_out[31] O
la_data_out[32] O
la_data_out[33] O
la_data_out[34] O
la_data_out[35] O
la_data_out[36] O
la_data_out[37] O
la_data_out[38] O
la_data_out[39] O
la_data_out[3] O
la_data_out[40] O
la_data_out[41] O
la_data_out[42] O
la_data_out[43] O
la_data_out[44] O
la_data_out[45] O
la_data_out[46] O
la_data_out[47] O
la_data_out[48] O
la_data_out[49] O
la_data_out[4] O
la_data_out[50] O
la_data_out[51] O
la_data_out[52] O
la_data_out[53] O
la_data_out[54] O
la_data_out[55] O
la_data_out[56] O
la_data_out[57] O
la_data_out[58] O
la_data_out[59] O
la_data_out[5] O
la_data_out[60] O
la_data_out[61] O
la_data_out[62] O
la_data_out[63] O
la_data_out[6] O
la_data_out[7] O
la_data_out[8] O
la_data_out[9] O
la_oenb[0] I
la_oenb[10] I
la_oenb[11] I
la_oenb[12] I
la_oenb[13] I
la_oenb[14] I
la_oenb[15] I
la_oenb[16] I
la_oenb[17] I
la_oenb[18] I
la_oenb[19] I
la_oenb[1] I
la_oenb[20] I
la_oenb[21] I
la_oenb[22] I
la_oenb[23] I
la_oenb[24] I
la_oenb[25] I
la_oenb[26] I
la_oenb[27] I
la_oenb[28] I
la_oenb[29] I
la_oenb[2] I
la_oenb[30] I
la_oenb[31] I
la_oenb[32] I
la_oenb[33] I
la_oenb[34] I
la_oenb[35] I
la_oenb[36] I
la_oenb[37] I
la_oenb[38] I
la_oenb[39] I
la_oenb[3] I
la_oenb[40] I
la_oenb[41] I
la_oenb[42] I
la_oenb[43] I
la_oenb[44] I
la_oenb[45] I
la_oenb[46] I
la_oenb[47] I
la_oenb[48] I
la_oenb[49] I
la_oenb[4] I
la_oenb[50] I
la_oenb[51] I
la_oenb[52] I
la_oenb[53] I
la_oenb[54] I
la_oenb[55] I
la_oenb[56] I
la_oenb[57] I
la_oenb[58] I
la_oenb[59] I
la_oenb[5] I
la_oenb[60] I
la_oenb[61] I
la_oenb[62] I
la_oenb[63] I
la_oenb[6] I
la_oenb[7] I
la_oenb[8] I
la_oenb[9] I
user_clock2 I
user_irq[0] O
user_irq[1] O
user_irq[2] O
wb_clk_i I
wb_rst_i I
wbs_ack_o O
wbs_adr_i[0] I
wbs_adr_i[10] I
wbs_adr_i[11] I
wbs_adr_i[12] I
wbs_adr_i[13] I
wbs_adr_i[14] I
wbs_adr_i[15] I
wbs_adr_i[16] I
wbs_adr_i[17] I
wbs_adr_i[18] I
wbs_adr_i[19] I
wbs_adr_i[1] I
wbs_adr_i[20] I
wbs_adr_i[21] I
wbs_adr_i[22] I
wbs_adr_i[23] I
wbs_adr_i[24] I
wbs_adr_i[25] I
wbs_adr_i[26] I
wbs_adr_i[27] I
wbs_adr_i[28] I
wbs_adr_i[29] I
wbs_adr_i[2] I
wbs_adr_i[30] I
wbs_adr_i[31] I
wbs_adr_i[3] I
wbs_adr_i[4] I
wbs_adr_i[5] I
wbs_adr_i[6] I
wbs_adr_i[7] I
wbs_adr_i[8] I
wbs_adr_i[9] I
wbs_cyc_i I
wbs_dat_i[0] I
wbs_dat_i[10] I
wbs_dat_i[11] I
wbs_dat_i[12] I
wbs_dat_i[13] I
wbs_dat_i[14] I
wbs_dat_i[15] I
wbs_dat_i[16] I
wbs_dat_i[17] I
wbs_dat_i[18] I
wbs_dat_i[19] I
wbs_dat_i[1] I
wbs_dat_i[20] I
wbs_dat_i[21] I
wbs_dat_i[22] I
wbs_dat_i[23] I
wbs_dat_i[24] I
wbs_dat_i[25] I
wbs_dat_i[26] I
wbs_dat_i[27] I
wbs_dat_i[28] I
wbs_dat_i[29] I
wbs_dat_i[2] I
wbs_dat_i[30] I
wbs_dat_i[31] I
wbs_dat_i[3] I
wbs_dat_i[4] I
wbs_dat_i[5] I
wbs_dat_i[6] I
wbs_dat_i[7] I
wbs_dat_i[8] I
wbs_dat_i[9] I
wbs_dat_o[0] O
wbs_dat_o[10] O
wbs_dat_o[11] O
wbs_dat_o[12] O
wbs_dat_o[13] O
wbs_dat_o[14] O
wbs_dat_o[15] O
wbs_dat_o[16] O
wbs_dat_o[17] O
wbs_dat_o[18] O
wbs_dat_o[19] O
wbs_dat_o[1] O
wbs_dat_o[20] O
wbs_dat_o[21] O
wbs_dat_o[22] O
wbs_dat_o[23] O
wbs_dat_o[24] O
wbs_dat_o[25] O
wbs_dat_o[26] O
wbs_dat_o[27] O
wbs_dat_o[28] O
wbs_dat_o[29] O
wbs_dat_o[2] O
wbs_dat_o[30] O
wbs_dat_o[31] O
wbs_dat_o[3] O
wbs_dat_o[4] O
wbs_dat_o[5] O
wbs_dat_o[6] O
wbs_dat_o[7] O
wbs_dat_o[8] O
wbs_dat_o[9] O
wbs_sel_i[0] I
wbs_sel_i[1] I
wbs_sel_i[2] I
wbs_sel_i[3] I
wbs_stb_i I
wbs_we_i I

*D_NET *115 0.110811
*CONN
*P la_data_in[0] I
*I *419:la_data_in[0] I *D present_gf180_wrapper
*CAP
1 la_data_in[0] 0.00295206
2 *419:la_data_in[0] 0.0148324
3 *115:11 0.0148324
4 *115:9 0.0210271
5 *115:7 0.0239792
6 *115:9 *118:9 0.0331883
*RES
1 la_data_in[0] *115:7 27.224 
2 *115:7 *115:9 222.872 
3 *115:9 *115:11 4.5 
4 *115:11 *419:la_data_in[0] 125.476 
*END

*D_NET *116 0.137338
*CONN
*P la_data_in[10] I
*I *419:la_data_in[10] I *D present_gf180_wrapper
*CAP
1 la_data_in[10] 0.00324252
2 *419:la_data_in[10] 0.0146317
3 *116:11 0.0146317
4 *116:9 0.0143319
5 *116:7 0.0175744
6 *116:9 *182:9 0.0729254
*RES
1 la_data_in[10] *116:7 30.344 
2 *116:7 *116:9 212.472 
3 *116:9 *116:11 4.5 
4 *116:11 *419:la_data_in[10] 122.356 
*END

*D_NET *117 0.0860767
*CONN
*P la_data_in[11] I
*I *419:la_data_in[11] I *D present_gf180_wrapper
*CAP
1 la_data_in[11] 0.0170681
2 *419:la_data_in[11] 0.00120981
3 *117:9 0.0259702
4 *117:7 0.0247604
5 *117:5 0.0170681
6 *117:5 *419:la_data_in[29] 0
7 *117:9 *419:la_data_in[16] 0
8 *117:9 *185:11 0
*RES
1 la_data_in[11] *117:5 138.164 
2 *117:5 *117:7 4.5 
3 *117:7 *117:9 211.432 
4 *117:9 *419:la_data_in[11] 14.536 
*END

*D_NET *118 0.130425
*CONN
*P la_data_in[12] I
*I *419:la_data_in[12] I *D present_gf180_wrapper
*CAP
1 la_data_in[12] 0.00246416
2 *419:la_data_in[12] 0.0150526
3 *118:11 0.0150526
4 *118:9 0.0153148
5 *118:7 0.017779
6 *118:7 *419:la_data_in[30] 0.00123668
7 *118:9 *194:9 0.0303365
8 *115:9 *118:9 0.0331883
*RES
1 la_data_in[12] *118:7 27.432 
2 *118:7 *118:9 210.392 
3 *118:9 *118:11 4.5 
4 *118:11 *419:la_data_in[12] 125.268 
*END

*D_NET *119 0.0848249
*CONN
*P la_data_in[13] I
*I *419:la_data_in[13] I *D present_gf180_wrapper
*CAP
1 la_data_in[13] 0.00367476
2 *419:la_data_in[13] 0.0143292
3 *119:11 0.0143292
4 *119:9 0.0244032
5 *119:7 0.0280779
6 *119:7 *419:la_data_in[31] 1.07369e-05
*RES
1 la_data_in[13] *119:7 33.464 
2 *119:7 *119:9 209.352 
3 *119:9 *119:11 4.5 
4 *119:11 *419:la_data_in[13] 119.236 
*END

*D_NET *120 0.0848496
*CONN
*P la_data_in[14] I
*I *419:la_data_in[14] I *D present_gf180_wrapper
*CAP
1 la_data_in[14] 0.00408379
2 *419:la_data_in[14] 0.0139859
3 *120:11 0.0139859
4 *120:9 0.0243552
5 *120:7 0.0284389
*RES
1 la_data_in[14] *120:7 36.584 
2 *120:7 *120:9 208.312 
3 *120:9 *120:11 4.5 
4 *120:11 *419:la_data_in[14] 116.116 
*END

*D_NET *121 0.0847918
*CONN
*P la_data_in[15] I
*I *419:la_data_in[15] I *D present_gf180_wrapper
*CAP
1 la_data_in[15] 0.00446782
2 *419:la_data_in[15] 0.0136426
3 *121:11 0.0136426
4 *121:9 0.0242855
5 *121:7 0.0287533
*RES
1 la_data_in[15] *121:7 39.704 
2 *121:7 *121:9 207.272 
3 *121:9 *121:11 4.5 
4 *121:11 *419:la_data_in[15] 112.996 
*END

*D_NET *122 0.0849851
*CONN
*P la_data_in[16] I
*I *419:la_data_in[16] I *D present_gf180_wrapper
*CAP
1 la_data_in[16] 0.00678699
2 *419:la_data_in[16] 0.00170233
3 *122:13 0.0121341
4 *122:11 0.0104318
5 *122:9 0.0235715
6 *122:7 0.0235715
7 *122:5 0.00678699
8 *122:13 *186:5 0
9 *117:9 *419:la_data_in[16] 0
*RES
1 la_data_in[16] *122:5 53.924 
2 *122:5 *122:7 4.5 
3 *122:7 *122:9 202.28 
4 *122:9 *122:11 4.5 
5 *122:11 *122:13 86.008 
6 *122:13 *419:la_data_in[16] 21.428 
*END

*D_NET *123 0.0847722
*CONN
*P la_data_in[17] I
*I *419:la_data_in[17] I *D present_gf180_wrapper
*CAP
1 la_data_in[17] 0.00568826
2 *419:la_data_in[17] 0.0125637
3 *123:11 0.0125637
4 *123:9 0.0238705
5 *123:7 0.0295587
6 *123:7 *419:la_data_in[37] 2.04597e-06
7 *123:9 *145:9 0.00052527
*RES
1 la_data_in[17] *123:7 49.272 
2 *123:7 *123:9 205.192 
3 *123:9 *123:11 4.5 
4 *123:11 *419:la_data_in[17] 103.428 
*END

*D_NET *124 0.0923888
*CONN
*P la_data_in[18] I
*I *419:la_data_in[18] I *D present_gf180_wrapper
*CAP
1 la_data_in[18] 0.00219765
2 *419:la_data_in[18] 0.0160758
3 *124:11 0.0160758
4 *124:9 0.0224694
5 *124:7 0.024667
6 *124:9 *190:9 0.0109032
*RES
1 la_data_in[18] *124:7 21.192 
2 *124:7 *124:9 204.152 
3 *124:9 *124:11 4.5 
4 *124:11 *419:la_data_in[18] 131.508 
*END

*D_NET *125 0.0859515
*CONN
*P la_data_in[19] I
*I *419:la_data_in[19] I *D present_gf180_wrapper
*CAP
1 la_data_in[19] 0.00603259
2 *419:la_data_in[19] 0.0122205
3 *125:11 0.0122205
4 *125:9 0.023704
5 *125:7 0.023704
6 *125:5 0.00603259
7 *125:9 *179:9 0.00203748
*RES
1 la_data_in[19] *125:5 47.892 
2 *125:5 *125:7 4.5 
3 *125:7 *125:9 203.112 
4 *125:9 *125:11 4.5 
5 *125:11 *419:la_data_in[19] 100.308 
*END

*D_NET *126 0.146351
*CONN
*P la_data_in[1] I
*I *419:la_data_in[1] I *D present_gf180_wrapper
*CAP
1 la_data_in[1] 0.00132377
2 *419:la_data_in[1] 0.0163587
3 *126:11 0.0163587
4 *126:9 0.0135962
5 *126:7 0.01492
6 *126:9 *137:9 0.0837938
*RES
1 la_data_in[1] *126:7 14.744 
2 *126:7 *126:9 221.832 
3 *126:9 *126:11 4.5 
4 *126:11 *419:la_data_in[1] 137.956 
*END

*D_NET *127 0.0943128
*CONN
*P la_data_in[20] I
*I *419:la_data_in[20] I *D present_gf180_wrapper
*CAP
1 la_data_in[20] 0.0071749
2 *419:la_data_in[20] 0.0110781
3 *127:11 0.0110781
4 *127:9 0.0218191
5 *127:7 0.0218191
6 *127:5 0.0071749
7 *127:9 *223:9 0.0141686
*RES
1 la_data_in[20] *127:5 57.252 
2 *127:5 *127:7 4.5 
3 *127:7 *127:9 202.072 
4 *127:9 *127:11 4.5 
5 *127:11 *419:la_data_in[20] 90.948 
*END

*D_NET *128 0.117412
*CONN
*P la_data_in[21] I
*I *419:la_data_in[21] I *D present_gf180_wrapper
*CAP
1 la_data_in[21] 0.00132377
2 *419:la_data_in[21] 0.0169647
3 *128:11 0.0169647
4 *128:9 0.0167385
5 *128:7 0.0180622
6 *419:la_data_in[21] *137:7 1.84169e-05
7 *128:9 *135:9 0.0473395
*RES
1 la_data_in[21] *128:7 14.744 
2 *128:7 *128:9 201.032 
3 *128:9 *128:11 4.5 
4 *128:11 *419:la_data_in[21] 137.956 
*END

*D_NET *129 0.0831546
*CONN
*P la_data_in[22] I
*I *419:la_data_in[22] I *D present_gf180_wrapper
*CAP
1 la_data_in[22] 0.00749392
2 *419:la_data_in[22] 0.0107387
3 *129:11 0.0107387
4 *129:9 0.0233446
5 *129:7 0.0233446
6 *129:5 0.00749392
7 *419:la_data_in[22] la_data_out[3] 0
*RES
1 la_data_in[22] *129:5 60.164 
2 *129:5 *129:7 4.5 
3 *129:7 *129:9 199.992 
4 *129:9 *129:11 4.5 
5 *129:11 *419:la_data_in[22] 88.036 
*END

*D_NET *130 0.0831456
*CONN
*P la_data_in[23] I
*I *419:la_data_in[23] I *D present_gf180_wrapper
*CAP
1 la_data_in[23] 0.00785758
2 *419:la_data_in[23] 0.0103547
3 *130:11 0.0103547
4 *130:9 0.0233605
5 *130:7 0.0233605
6 *130:5 0.00785758
*RES
1 la_data_in[23] *130:5 63.284 
2 *130:5 *130:7 4.5 
3 *130:7 *130:9 198.952 
4 *130:9 *130:11 4.5 
5 *130:11 *419:la_data_in[23] 84.916 
*END

*D_NET *131 0.101077
*CONN
*P la_data_in[24] I
*I *419:la_data_in[24] I *D present_gf180_wrapper
*CAP
1 la_data_in[24] 0.00822511
2 *419:la_data_in[24] 0.00994641
3 *131:11 0.00994641
4 *131:9 0.0197645
5 *131:7 0.0197645
6 *131:5 0.00822511
7 *131:9 *181:9 0.0252051
*RES
1 la_data_in[24] *131:5 66.612 
2 *131:5 *131:7 4.5 
3 *131:7 *131:9 197.912 
4 *131:9 *131:11 4.5 
5 *131:11 *419:la_data_in[24] 81.588 
*END

*D_NET *132 0.0829106
*CONN
*P la_data_in[25] I
*I *419:la_data_in[25] I *D present_gf180_wrapper
*CAP
1 la_data_in[25] 0.00970064
2 *419:la_data_in[25] 0.00849126
3 *132:11 0.00849126
4 *132:9 0.0232634
5 *132:7 0.0232634
6 *132:5 0.00970064
*RES
1 la_data_in[25] *132:5 78.884 
2 *132:5 *132:7 4.5 
3 *132:7 *132:9 196.872 
4 *132:9 *132:11 4.5 
5 *132:11 *419:la_data_in[25] 69.316 
*END

*D_NET *133 0.134832
*CONN
*P la_data_in[26] I
*I *419:la_data_in[26] I *D present_gf180_wrapper
*CAP
1 la_data_in[26] 0.0017282
2 *419:la_data_in[26] 0.0166267
3 *133:11 0.0166267
4 *133:9 0.0125722
5 *133:7 0.0143004
6 *133:9 *134:9 0.0729776
*RES
1 la_data_in[26] *133:7 17.864 
2 *133:7 *133:9 195.832 
3 *133:9 *133:11 4.5 
4 *133:11 *419:la_data_in[26] 134.836 
*END

*D_NET *134 0.183085
*CONN
*P la_data_in[27] I
*I *419:la_data_in[27] I *D present_gf180_wrapper
*CAP
1 la_data_in[27] 0.00175244
2 *419:la_data_in[27] 0.0166025
3 *134:11 0.0166025
4 *134:9 0.00272802
5 *134:7 0.00448046
6 *134:9 *136:9 0.0679415
7 *133:9 *134:9 0.0729776
*RES
1 la_data_in[27] *134:7 18.072 
2 *134:7 *134:9 194.792 
3 *134:9 *134:11 4.5 
4 *134:11 *419:la_data_in[27] 134.628 
*END

*D_NET *135 0.164136
*CONN
*P la_data_in[28] I
*I *419:la_data_in[28] I *D present_gf180_wrapper
*CAP
1 la_data_in[28] 0.00133148
2 *419:la_data_in[28] 0.0169865
3 *135:11 0.0169865
4 *135:9 0.00630636
5 *135:7 0.00763784
6 *135:9 *138:9 0.0675473
7 *128:9 *135:9 0.0473395
*RES
1 la_data_in[28] *135:7 14.952 
2 *135:7 *135:9 193.752 
3 *135:9 *135:11 4.5 
4 *135:11 *419:la_data_in[28] 137.748 
*END

*D_NET *136 0.130626
*CONN
*P la_data_in[29] I
*I *419:la_data_in[29] I *D present_gf180_wrapper
*CAP
1 la_data_in[29] 0.00172321
2 *419:la_data_in[29] 0.0165171
3 *136:11 0.0165171
4 *136:9 0.0131019
5 *136:7 0.0148251
6 *117:5 *419:la_data_in[29] 0
7 *134:9 *136:9 0.0679415
*RES
1 la_data_in[29] *136:7 18.28 
2 *136:7 *136:9 192.712 
3 *136:9 *136:11 4.5 
4 *136:11 *419:la_data_in[29] 134.42 
*END

*D_NET *137 0.147014
*CONN
*P la_data_in[2] I
*I *419:la_data_in[2] I *D present_gf180_wrapper
*CAP
1 la_data_in[2] 0.00165502
2 *419:la_data_in[2] 0.0163548
3 *137:11 0.0163548
4 *137:9 0.0135911
5 *137:7 0.0152461
6 *419:la_data_in[21] *137:7 1.84169e-05
7 *126:9 *137:9 0.0837938
*RES
1 la_data_in[2] *137:7 14.952 
2 *137:7 *137:9 220.792 
3 *137:9 *137:11 4.5 
4 *137:11 *419:la_data_in[2] 137.748 
*END

*D_NET *138 0.130359
*CONN
*P la_data_in[30] I
*I *419:la_data_in[30] I *D present_gf180_wrapper
*CAP
1 la_data_in[30] 0.00132264
2 *419:la_data_in[30] 0.0164291
3 *138:11 0.0164291
4 *138:9 0.0130358
5 *138:7 0.0143585
6 *118:7 *419:la_data_in[30] 0.00123668
7 *135:9 *138:9 0.0675473
*RES
1 la_data_in[30] *138:7 15.16 
2 *138:7 *138:9 191.672 
3 *138:9 *138:11 4.5 
4 *138:11 *419:la_data_in[30] 137.54 
*END

*D_NET *139 0.0804729
*CONN
*P la_data_in[31] I
*I *419:la_data_in[31] I *D present_gf180_wrapper
*CAP
1 la_data_in[31] 0.00350811
2 *419:la_data_in[31] 0.0145691
3 *139:11 0.0145691
4 *139:9 0.0221539
5 *139:7 0.025662
6 *119:7 *419:la_data_in[31] 1.07369e-05
*RES
1 la_data_in[31] *139:7 33.464 
2 *139:7 *139:9 190.632 
3 *139:9 *139:11 4.5 
4 *139:11 *419:la_data_in[31] 119.236 
*END

*D_NET *140 0.079993
*CONN
*P la_data_in[32] I
*I *419:la_data_in[32] I *D present_gf180_wrapper
*CAP
1 la_data_in[32] 0.00385139
2 *419:la_data_in[32] 0.0141693
3 *140:11 0.0141693
4 *140:9 0.0219759
5 *140:7 0.0258273
6 *419:la_data_in[32] la_data_out[14] 0
*RES
1 la_data_in[32] *140:7 36.584 
2 *140:7 *140:9 189.592 
3 *140:9 *140:11 4.5 
4 *140:11 *419:la_data_in[32] 116.116 
*END

*D_NET *141 0.0795191
*CONN
*P la_data_in[33] I
*I *419:la_data_in[33] I *D present_gf180_wrapper
*CAP
1 la_data_in[33] 0.0164441
2 *419:la_data_in[33] 0.00120981
3 *141:9 0.0233155
4 *141:7 0.0221057
5 *141:5 0.0164441
6 *141:9 *419:la_data_in[38] 0
*RES
1 la_data_in[33] *141:5 138.164 
2 *141:5 *141:7 4.5 
3 *141:7 *141:9 194.376 
4 *141:9 *419:la_data_in[33] 14.536 
*END

*D_NET *142 0.0885442
*CONN
*P la_data_in[34] I
*I *419:la_data_in[34] I *D present_gf180_wrapper
*CAP
1 la_data_in[34] 0.00271967
2 *419:la_data_in[34] 0.0134292
3 *142:11 0.0134292
4 *142:9 0.018683
5 *142:7 0.0214027
6 *419:la_data_in[34] la_data_out[15] 0.00424599
7 *142:9 *194:9 0.0146345
*RES
1 la_data_in[34] *142:7 27.224 
2 *142:7 *142:9 199.16 
3 *142:9 *142:11 4.5 
4 *142:11 *419:la_data_in[34] 125.476 
*END

*D_NET *143 0.0834608
*CONN
*P la_data_in[35] I
*I *419:la_data_in[35] I *D present_gf180_wrapper
*CAP
1 la_data_in[35] 0.00308333
2 *419:la_data_in[35] 0.0148966
3 *143:11 0.0148966
4 *143:9 0.0237505
5 *143:7 0.0268338
*RES
1 la_data_in[35] *143:7 30.344 
2 *143:7 *143:9 203.944 
3 *143:9 *143:11 4.5 
4 *143:11 *419:la_data_in[35] 122.356 
*END

*D_NET *144 0.101891
*CONN
*P la_data_in[36] I
*I *419:la_data_in[36] I *D present_gf180_wrapper
*CAP
1 la_data_in[36] 0.00417431
2 *419:la_data_in[36] 0.00982277
3 *144:11 0.00982277
4 *144:9 0.0241838
5 *144:7 0.0283581
6 *419:la_data_in[36] *186:13 0.025529
*RES
1 la_data_in[36] *144:7 39.704 
2 *144:7 *144:9 208.728 
3 *144:9 *144:11 4.5 
4 *144:11 *419:la_data_in[36] 112.996 
*END

*D_NET *145 0.0855644
*CONN
*P la_data_in[37] I
*I *419:la_data_in[37] I *D present_gf180_wrapper
*CAP
1 la_data_in[37] 0.00529005
2 *419:la_data_in[37] 0.0126073
3 *145:11 0.0126073
4 *145:9 0.0246212
5 *145:7 0.0299112
6 *123:7 *419:la_data_in[37] 2.04597e-06
7 *123:9 *145:9 0.00052527
*RES
1 la_data_in[37] *145:7 49.064 
2 *145:7 *145:9 213.512 
3 *145:9 *145:11 4.5 
4 *145:11 *419:la_data_in[37] 103.636 
*END

*D_NET *146 0.0866201
*CONN
*P la_data_in[38] I
*I *419:la_data_in[38] I *D present_gf180_wrapper
*CAP
1 la_data_in[38] 0.00641198
2 *419:la_data_in[38] 0.00186852
3 *146:13 0.0123206
4 *146:11 0.0104521
5 *146:9 0.0245774
6 *146:7 0.0245774
7 *146:5 0.00641198
8 *141:9 *419:la_data_in[38] 0
*RES
1 la_data_in[38] *146:5 53.924 
2 *146:5 *146:7 4.5 
3 *146:7 *146:9 214.136 
4 *146:9 *146:11 4.5 
5 *146:11 *146:13 86.008 
6 *146:13 *419:la_data_in[38] 21.636 
*END

*D_NET *148 0.087
*CONN
*P la_data_in[3] I
*I *419:la_data_in[3] I *D present_gf180_wrapper
*CAP
1 la_data_in[3] 0.00755506
2 *419:la_data_in[3] 0.0104331
3 *148:11 0.0104331
4 *148:9 0.0255118
5 *148:7 0.0255118
6 *148:5 0.00755506
*RES
1 la_data_in[3] *148:5 60.164 
2 *148:5 *148:7 4.5 
3 *148:7 *148:9 219.752 
4 *148:9 *148:11 4.5 
5 *148:11 *419:la_data_in[3] 88.036 
*END

*D_NET *159 0.0869421
*CONN
*P la_data_in[4] I
*I *419:la_data_in[4] I *D present_gf180_wrapper
*CAP
1 la_data_in[4] 0.00793909
2 *419:la_data_in[4] 0.0100898
3 *159:11 0.0100898
4 *159:9 0.0254421
5 *159:7 0.0254421
6 *159:5 0.00793909
*RES
1 la_data_in[4] *159:5 63.284 
2 *159:5 *159:7 4.5 
3 *159:7 *159:9 218.712 
4 *159:9 *159:11 4.5 
5 *159:11 *419:la_data_in[4] 84.916 
*END

*D_NET *170 0.144824
*CONN
*P la_data_in[5] I
*I *419:la_data_in[5] I *D present_gf180_wrapper
*CAP
1 la_data_in[5] 0.00170781
2 *419:la_data_in[5] 0.0161173
3 *170:11 0.0161173
4 *170:9 0.0135987
5 *170:7 0.0153065
6 *170:9 *175:9 0.0819761
*RES
1 la_data_in[5] *170:7 17.864 
2 *170:7 *170:9 217.672 
3 *170:9 *170:11 4.5 
4 *170:11 *419:la_data_in[5] 134.836 
*END

*D_NET *175 0.203075
*CONN
*P la_data_in[6] I
*I *419:la_data_in[6] I *D present_gf180_wrapper
*CAP
1 la_data_in[6] 0.00171551
2 *419:la_data_in[6] 0.0160931
3 *175:11 0.0160931
4 *175:9 0.00190946
5 *175:7 0.00362497
6 *175:9 *176:9 0.0816625
7 *170:9 *175:9 0.0819761
*RES
1 la_data_in[6] *175:7 18.072 
2 *175:7 *175:9 216.632 
3 *175:9 *175:11 4.5 
4 *175:11 *419:la_data_in[6] 134.628 
*END

*D_NET *176 0.143805
*CONN
*P la_data_in[7] I
*I *419:la_data_in[7] I *D present_gf180_wrapper
*CAP
1 la_data_in[7] 0.00172321
2 *419:la_data_in[7] 0.0160688
3 *176:11 0.0160688
4 *176:9 0.0132793
5 *176:7 0.0150025
6 *175:9 *176:9 0.0816625
*RES
1 la_data_in[7] *176:7 18.28 
2 *176:7 *176:9 215.592 
3 *176:9 *176:11 4.5 
4 *176:11 *419:la_data_in[7] 134.42 
*END

*D_NET *177 0.0858925
*CONN
*P la_data_in[8] I
*I *419:la_data_in[8] I *D present_gf180_wrapper
*CAP
1 la_data_in[8] 0.00863622
2 *419:la_data_in[8] 0.00936251
3 *177:11 0.00936251
4 *177:9 0.0249466
5 *177:7 0.0249466
6 *177:5 0.00863622
7 *177:5 *197:5 1.78817e-06
*RES
1 la_data_in[8] *177:5 69.524 
2 *177:5 *177:7 4.5 
3 *177:7 *177:9 214.552 
4 *177:9 *177:11 4.5 
5 *177:11 *419:la_data_in[8] 78.676 
*END

*D_NET *178 0.085752
*CONN
*P la_data_in[9] I
*I *419:la_data_in[9] I *D present_gf180_wrapper
*CAP
1 la_data_in[9] 0.010158
2 *419:la_data_in[9] 0.00786273
3 *178:11 0.00786273
4 *178:9 0.0248553
5 *178:7 0.0248553
6 *178:5 0.010158
7 *178:5 *198:5 0
*RES
1 la_data_in[9] *178:5 82.004 
2 *178:5 *178:7 4.5 
3 *178:7 *178:9 213.512 
4 *178:9 *178:11 4.5 
5 *178:11 *419:la_data_in[9] 66.196 
*END

*D_NET *179 0.0883607
*CONN
*P la_data_out[0] O
*I *419:la_data_out[0] O *D present_gf180_wrapper
*CAP
1 la_data_out[0] 0.00602874
2 *419:la_data_out[0] 0.0118983
3 *179:11 0.00602874
4 *179:9 0.0252345
5 *179:7 0.0252345
6 *179:5 0.0118983
7 *125:9 *179:9 0.00203748
*RES
1 *419:la_data_out[0] *179:5 100.516 
2 *179:5 *179:7 4.5 
3 *179:7 *179:9 220.584 
4 *179:9 *179:11 4.5 
5 *179:11 la_data_out[0] 47.684 
*END

*D_NET *180 0.0904163
*CONN
*P la_data_out[10] O
*I *419:la_data_out[10] O *D present_gf180_wrapper
*CAP
1 la_data_out[10] 0.00694